
---------- Begin Simulation Statistics ----------
sim_seconds                                  7.448049                       # Number of seconds simulated
sim_ticks                                  7448049000                       # Number of ticks simulated
final_tick                                 7448049000                       # Number of ticks from beginning of simulation (restored from checkpoints and never reset)
sim_freq                                   1000000000                       # Frequency of simulated ticks
host_inst_rate                                2770573                       # Simulator instruction rate (inst/s)
host_op_rate                                  3076728                       # Simulator op (including micro ops) rate (op/s)
host_tick_rate                             1539034295                       # Simulator tick rate (ticks/s)
host_mem_usage                                 469256                       # Number of bytes of host memory used
host_seconds                                     4.84                       # Real time elapsed on the host
sim_insts                                    13407922                       # Number of instructions simulated
sim_ops                                      14889575                       # Number of ops (including micro ops) simulated
system.realview.nvmem.bytes_read::cpu.inst           20                       # Number of bytes read from this memory
system.realview.nvmem.bytes_read::total            20                       # Number of bytes read from this memory
system.realview.nvmem.bytes_inst_read::cpu.inst           20                       # Number of instructions bytes read from this memory
system.realview.nvmem.bytes_inst_read::total           20                       # Number of instructions bytes read from this memory
system.realview.nvmem.num_reads::cpu.inst            5                       # Number of read requests responded to by this memory
system.realview.nvmem.num_reads::total              5                       # Number of read requests responded to by this memory
system.realview.nvmem.bw_read::cpu.inst             3                       # Total read bandwidth from this memory (bytes/s)
system.realview.nvmem.bw_read::total                3                       # Total read bandwidth from this memory (bytes/s)
system.realview.nvmem.bw_inst_read::cpu.inst            3                       # Instruction read bandwidth from this memory (bytes/s)
system.realview.nvmem.bw_inst_read::total            3                       # Instruction read bandwidth from this memory (bytes/s)
system.realview.nvmem.bw_total::cpu.inst            3                       # Total bandwidth to/from this memory (bytes/s)
system.realview.nvmem.bw_total::total               3                       # Total bandwidth to/from this memory (bytes/s)
system.mem_ctrls.bytes_read::cpu.dtb.walker           76                       # Number of bytes read from this memory
system.mem_ctrls.bytes_read::cpu.itb.walker           28                       # Number of bytes read from this memory
system.mem_ctrls.bytes_read::cpu.inst        59575748                       # Number of bytes read from this memory
system.mem_ctrls.bytes_read::cpu.data         8134892                       # Number of bytes read from this memory
system.mem_ctrls.bytes_read::total           67710744                       # Number of bytes read from this memory
system.mem_ctrls.bytes_inst_read::cpu.inst     59575748                       # Number of instructions bytes read from this memory
system.mem_ctrls.bytes_inst_read::total      59575748                       # Number of instructions bytes read from this memory
system.mem_ctrls.bytes_written::cpu.data      5933621                       # Number of bytes written to this memory
system.mem_ctrls.bytes_written::total         5933621                       # Number of bytes written to this memory
system.mem_ctrls.num_reads::cpu.dtb.walker           19                       # Number of read requests responded to by this memory
system.mem_ctrls.num_reads::cpu.itb.walker            7                       # Number of read requests responded to by this memory
system.mem_ctrls.num_reads::cpu.inst         14893937                       # Number of read requests responded to by this memory
system.mem_ctrls.num_reads::cpu.data          2252763                       # Number of read requests responded to by this memory
system.mem_ctrls.num_reads::total            17146726                       # Number of read requests responded to by this memory
system.mem_ctrls.num_writes::cpu.data         1639369                       # Number of write requests responded to by this memory
system.mem_ctrls.num_writes::total            1639369                       # Number of write requests responded to by this memory
system.mem_ctrls.bw_read::cpu.dtb.walker           10                       # Total read bandwidth from this memory (bytes/s)
system.mem_ctrls.bw_read::cpu.itb.walker            4                       # Total read bandwidth from this memory (bytes/s)
system.mem_ctrls.bw_read::cpu.inst            7998839                       # Total read bandwidth from this memory (bytes/s)
system.mem_ctrls.bw_read::cpu.data            1092218                       # Total read bandwidth from this memory (bytes/s)
system.mem_ctrls.bw_read::total               9091071                       # Total read bandwidth from this memory (bytes/s)
system.mem_ctrls.bw_inst_read::cpu.inst       7998839                       # Instruction read bandwidth from this memory (bytes/s)
system.mem_ctrls.bw_inst_read::total          7998839                       # Instruction read bandwidth from this memory (bytes/s)
system.mem_ctrls.bw_write::cpu.data            796668                       # Write bandwidth from this memory (bytes/s)
system.mem_ctrls.bw_write::total               796668                       # Write bandwidth from this memory (bytes/s)
system.mem_ctrls.bw_total::cpu.dtb.walker           10                       # Total bandwidth to/from this memory (bytes/s)
system.mem_ctrls.bw_total::cpu.itb.walker            4                       # Total bandwidth to/from this memory (bytes/s)
system.mem_ctrls.bw_total::cpu.inst           7998839                       # Total bandwidth to/from this memory (bytes/s)
system.mem_ctrls.bw_total::cpu.data           1888886                       # Total bandwidth to/from this memory (bytes/s)
system.mem_ctrls.bw_total::total              9887739                       # Total bandwidth to/from this memory (bytes/s)
system.membus.throughput                      9889381                       # Throughput (bytes/s)
system.membus.data_through_bus               73656596                       # Total data (bytes)
system.membus.snoop_data_through_bus                0                       # Total snoop data (bytes)
system.cf0.dma_read_full_pages                      0                       # Number of full page size DMA reads (not PRD).
system.cf0.dma_read_bytes                           0                       # Number of bytes transfered via DMA reads (not PRD).
system.cf0.dma_read_txs                             0                       # Number of DMA read transactions (not PRD).
system.cf0.dma_write_full_pages                     0                       # Number of full page size DMA writes.
system.cf0.dma_write_bytes                          0                       # Number of bytes transfered via DMA writes.
system.cf0.dma_write_txs                            0                       # Number of DMA write transactions.
system.iobus.throughput                          1639                       # Throughput (bytes/s)
system.iobus.data_through_bus                   12207                       # Total data (bytes)
system.cpu.dtb.inst_hits                            0                       # ITB inst hits
system.cpu.dtb.inst_misses                          0                       # ITB inst misses
system.cpu.dtb.read_hits                      2255431                       # DTB read hits
system.cpu.dtb.read_misses                         11                       # DTB read misses
system.cpu.dtb.write_hits                     1636527                       # DTB write hits
system.cpu.dtb.write_misses                         5                       # DTB write misses
system.cpu.dtb.flush_tlb                            2                       # Number of times complete TLB was flushed
system.cpu.dtb.flush_tlb_mva                        0                       # Number of times TLB was flushed by MVA
system.cpu.dtb.flush_tlb_mva_asid                   0                       # Number of times TLB was flushed by MVA & ASID
system.cpu.dtb.flush_tlb_asid                       0                       # Number of times TLB was flushed by ASID
system.cpu.dtb.flush_entries                        6                       # Number of entries that have been flushed from TLB
system.cpu.dtb.align_faults                         0                       # Number of TLB faults due to alignment restrictions
system.cpu.dtb.prefetch_faults                      0                       # Number of TLB faults due to prefetch
system.cpu.dtb.domain_faults                        0                       # Number of TLB faults due to domain restrictions
system.cpu.dtb.perms_faults                         0                       # Number of TLB faults due to permissions restrictions
system.cpu.dtb.read_accesses                  2255442                       # DTB read accesses
system.cpu.dtb.write_accesses                 1636532                       # DTB write accesses
system.cpu.dtb.inst_accesses                        0                       # ITB inst accesses
system.cpu.dtb.hits                           3891958                       # DTB hits
system.cpu.dtb.misses                              16                       # DTB misses
system.cpu.dtb.accesses                       3891974                       # DTB accesses
system.cpu.itb.inst_hits                     14883098                       # ITB inst hits
system.cpu.itb.inst_misses                          7                       # ITB inst misses
system.cpu.itb.read_hits                            0                       # DTB read hits
system.cpu.itb.read_misses                          0                       # DTB read misses
system.cpu.itb.write_hits                           0                       # DTB write hits
system.cpu.itb.write_misses                         0                       # DTB write misses
system.cpu.itb.flush_tlb                            2                       # Number of times complete TLB was flushed
system.cpu.itb.flush_tlb_mva                        0                       # Number of times TLB was flushed by MVA
system.cpu.itb.flush_tlb_mva_asid                   0                       # Number of times TLB was flushed by MVA & ASID
system.cpu.itb.flush_tlb_asid                       0                       # Number of times TLB was flushed by ASID
system.cpu.itb.flush_entries                        4                       # Number of entries that have been flushed from TLB
system.cpu.itb.align_faults                         0                       # Number of TLB faults due to alignment restrictions
system.cpu.itb.prefetch_faults                      0                       # Number of TLB faults due to prefetch
system.cpu.itb.domain_faults                        0                       # Number of TLB faults due to domain restrictions
system.cpu.itb.perms_faults                         0                       # Number of TLB faults due to permissions restrictions
system.cpu.itb.read_accesses                        0                       # DTB read accesses
system.cpu.itb.write_accesses                       0                       # DTB write accesses
system.cpu.itb.inst_accesses                 14883105                       # ITB inst accesses
system.cpu.itb.hits                          14883098                       # DTB hits
system.cpu.itb.misses                               7                       # DTB misses
system.cpu.itb.accesses                      14883105                       # DTB accesses
system.cpu.numCycles                         14896099                       # number of cpu cycles simulated
system.cpu.numWorkItemsStarted                      0                       # number of work items this cpu started
system.cpu.numWorkItemsCompleted                    0                       # number of work items this cpu completed
system.cpu.committedInsts                    13407922                       # Number of instructions committed
system.cpu.committedOps                      14889575                       # Number of ops (including micro ops) committed
system.cpu.num_int_alu_accesses              13063112                       # Number of integer alu accesses
system.cpu.num_fp_alu_accesses                      0                       # Number of float alu accesses
system.cpu.num_func_calls                      463510                       # number of times a function call or return occured
system.cpu.num_conditional_control_insts      1731417                       # number of instructions that are conditional controls
system.cpu.num_int_insts                     13063112                       # number of integer instructions
system.cpu.num_fp_insts                             0                       # number of float instructions
system.cpu.num_int_register_reads            65313102                       # number of times the integer registers were read
system.cpu.num_int_register_writes           15216090                       # number of times the integer registers were written
system.cpu.num_fp_register_reads                    0                       # number of times the floating registers were read
system.cpu.num_fp_register_writes                   0                       # number of times the floating registers were written
system.cpu.num_mem_refs                       4103015                       # number of memory refs
system.cpu.num_load_insts                     2389277                       # Number of load instructions
system.cpu.num_store_insts                    1713738                       # Number of store instructions
system.cpu.num_idle_cycles                   4.314000                       # Number of idle cycles
system.cpu.num_busy_cycles               14896094.686000                       # Number of busy cycles
system.cpu.not_idle_fraction                 1.000000                       # Percentage of non-idle cycles
system.cpu.idle_fraction                     0.000000                       # Percentage of idle cycles
system.cpu.kern.inst.arm                            0                       # number of arm instructions executed
system.cpu.kern.inst.quiesce                     2157                       # number of quiesce instructions executed

---------- End Simulation Statistics   ----------
